New England/PSSE Cases/Easy/Fall116Generous.RAW
 0,    100.00, 33, 0, 0, 60.00       / August 21, 2017 18:23:12; Simulator Version 19; BuildDate 2016_7_14


    1,'1           ', 345.0000,2,   1,   1,   1,1.02830, -23.4974, 1.10000, 0.98000, 1.10000, 0.98000
    2,'2           ', 345.0000,1,   1,   1,   1,1.02577, -23.7622, 1.06000, 0.92000, 1.06000, 0.92000
    3,'3           ', 138.0000,2,   1,   1,   1,1.02000, -12.4357, 1.10000, 0.98000, 1.10000, 0.98000
    4,'4           ', 138.0000,1,   1,   1,   1,0.98060, -25.0397, 1.06000, 0.92000, 1.06000, 0.92000
    5,'5           ', 230.0000,1,   1,   1,   1,0.98560, -22.4123, 1.06000, 0.92000, 1.06000, 0.92000
    6,'6           ', 138.0000,1,   1,   1,   1,1.01158, -11.2720, 1.06000, 0.92000, 1.06000, 0.92000
    7,'7           ', 138.0000,2,   1,   1,   1,1.02000, -21.7462, 1.10000, 0.98000, 1.10000, 0.98000
    8,'8           ', 230.0000,2,   1,   1,   1,1.02000, -19.8323, 1.10000, 0.98000, 1.10000, 0.98000
    9,'9           ', 345.0000,1,   1,   1,   1,1.02979, -21.2674, 1.06000, 0.92000, 1.06000, 0.92000
   10,'10          ', 138.0000,3,   1,   1,   1,1.02000,   0.0000, 1.10000, 0.98000, 1.10000, 0.98000
   11,'11          ', 138.0000,1,   1,   1,   1,1.01684,  -1.1600, 1.06000, 0.92000, 1.06000, 0.92000
   12,'12          ', 138.0000,1,   1,   1,   1,1.01609,  -2.0834, 1.06000, 0.92000, 1.06000, 0.92000
   13,'13          ', 345.0000,1,   1,   1,   1,1.01623,  -4.4744, 1.06000, 0.92000, 1.06000, 0.92000
   14,'14          ', 230.0000,1,   1,   1,   1,1.01533, -11.9041, 1.06000, 0.92000, 1.06000, 0.92000
   15,'15          ', 230.0000,1,   1,   1,   1,1.00838, -16.0201, 1.06000, 0.92000, 1.06000, 0.92000
   16,'16          ', 138.0000,1,   1,   1,   1,1.00558, -19.2478, 1.06000, 0.92000, 1.06000, 0.92000
   17,'17          ', 138.0000,1,   1,   1,   1,0.98341, -21.9153, 1.06000, 0.92000, 1.06000, 0.92000
   18,'18          ', 138.0000,1,   1,   1,   1,0.98146, -21.1414, 1.06000, 0.92000, 1.06000, 0.92000
   19,'19          ', 138.0000,1,   1,   1,   1,0.99215, -19.6674, 1.06000, 0.92000, 1.06000, 0.92000
   20,'20          ',  69.0000,1,   1,   1,   1,1.00161, -16.9090, 1.06000, 0.92000, 1.06000, 0.92000
   21,'21          ', 138.0000,1,   1,   1,   1,0.98362, -22.5925, 1.06000, 0.92000, 1.06000, 0.92000
   22,'22          ', 230.0000,1,   1,   1,   1,0.99428,  -8.2938, 1.06000, 0.92000, 1.06000, 0.92000
   23,'23          ', 230.0000,1,   1,   1,   1,0.99726, -10.5900, 1.06000, 0.92000, 1.06000, 0.92000
   24,'24          ', 230.0000,2,   1,   1,   1,1.02000, -13.6824, 1.10000, 0.98000, 1.10000, 0.98000
   25,'25          ', 230.0000,1,   1,   1,   1,1.00698, -23.9085, 1.06000, 0.92000, 1.06000, 0.92000
   26,'26          ', 345.0000,2,   1,   1,   1,1.02000, -33.9598, 1.10000, 0.98000, 1.10000, 0.98000
   27,'27          ', 230.0000,1,   1,   1,   1,0.99056, -32.1135, 1.06000, 0.92000, 1.06000, 0.92000
   28,'28          ', 138.0000,2,   1,   1,   1,1.02000, -27.9610, 1.10000, 0.98000, 1.10000, 0.98000
   29,'29          ', 138.0000,1,   1,   1,   1,1.01557, -25.7843, 1.06000, 0.92000, 1.06000, 0.92000
   30,'30          ',  14.0000,2,   1,   1,   1,1.02000, -22.0528, 1.10000, 0.98000, 1.10000, 0.98000
   31,'31          ',  14.0000,2,   1,   1,   1,1.02000,  -6.6518, 1.10000, 0.98000, 1.10000, 0.98000
   32,'32          ',  14.0000,2,   1,   1,   1,1.02000,   2.4773, 1.10000, 0.98000, 1.10000, 0.98000
   33,'33          ',  14.0000,2,   1,   1,   1,1.02000, -16.5074, 1.10000, 0.98000, 1.10000, 0.98000
   34,'34          ',  14.0000,2,   1,   1,   1,1.02000, -13.6039, 1.10000, 0.98000, 1.10000, 0.98000
   35,'35          ',  14.0000,2,   1,   1,   1,1.02000,   2.0598, 1.10000, 0.98000, 1.10000, 0.98000
   36,'36          ',  14.0000,2,   1,   1,   1,1.02000,  -7.6543, 1.10000, 0.98000, 1.10000, 0.98000
   37,'37          ',  14.0000,2,   1,   1,   1,1.02000, -22.1417, 1.10000, 0.98000, 1.10000, 0.98000
   38,'38          ',  14.0000,2,   1,   1,   1,1.02000, -23.3168, 1.10000, 0.98000, 1.10000, 0.98000
   39,'39          ', 345.0000,1,   1,   1,   1,1.01825, -31.1111, 1.06000, 0.92000, 1.06000, 0.92000
   40,'40          ', 345.0000,1,   1,   1,   1,1.00992, -35.2188, 1.06000, 0.92000, 1.06000, 0.92000
   41,'41          ', 345.0000,1,   1,   1,   1,0.99438, -31.4390, 1.06000, 0.92000, 1.06000, 0.92000
   42,'42          ', 345.0000,1,   1,   1,   1,1.01975, -37.0679, 1.06000, 0.92000, 1.06000, 0.92000
   43,'43          ', 345.0000,1,   1,   1,   1,1.01642, -34.1931, 1.06000, 0.92000, 1.06000, 0.92000
   44,'44          ', 230.0000,1,   1,   1,   1,1.00973, -23.3617, 1.06000, 0.92000, 1.06000, 0.92000
   45,'45          ', 345.0000,1,   1,   1,   1,1.01584, -23.0945, 1.06000, 0.92000, 1.06000, 0.92000
   46,'46          ', 138.0000,1,   1,   1,   1,0.96542, -25.1905, 1.06000, 0.92000, 1.06000, 0.92000
   47,'47          ', 138.0000,1,   1,   1,   1,0.93054, -28.6206, 1.06000, 0.92000, 1.06000, 0.92000
   48,'48          ', 345.0000,1,   1,   1,   1,0.97888, -25.5568, 1.06000, 0.92000, 1.06000, 0.92000
   49,'49          ', 138.0000,2,   1,   1,   1,1.02000, -19.2595, 1.10000, 0.98000, 1.10000, 0.98000
   50,'50          ', 138.0000,1,   1,   1,   1,0.98854, -24.2519, 1.06000, 0.92000, 1.06000, 0.92000
   51,'51          ', 138.0000,1,   1,   1,   1,1.00108, -28.2709, 1.06000, 0.92000, 1.06000, 0.92000
   52,'52          ', 345.0000,2,   1,   1,   1,1.02000, -22.8515, 1.10000, 0.98000, 1.10000, 0.98000
   53,'53          ', 138.0000,1,   1,   1,   1,0.98752, -27.2967, 1.06000, 0.92000, 1.06000, 0.92000
   54,'54          ', 230.0000,2,   1,   1,   1,1.02000, -19.2353, 1.10000, 0.98000, 1.10000, 0.98000
   55,'55          ', 230.0000,1,   1,   1,   1,1.00802, -22.6322, 1.06000, 0.92000, 1.06000, 0.92000
   56,'56          ', 345.0000,2,   1,   1,   1,1.02000, -11.7913, 1.10000, 0.98000, 1.10000, 0.98000
   57,'57          ', 138.0000,1,   1,   1,   1,0.95629, -27.0732, 1.06000, 0.92000, 1.06000, 0.92000
   58,'58          ', 345.0000,1,   1,   1,   1,1.00103, -12.8187, 1.06000, 0.92000, 1.06000, 0.92000
   59,'59          ', 345.0000,1,   1,   1,   1,1.01298, -15.1678, 1.06000, 0.92000, 1.06000, 0.92000
   60,'60          ', 138.0000,1,   1,   1,   1,0.95594, -24.9998, 1.06000, 0.92000, 1.06000, 0.92000
   61,'61          ', 230.0000,1,   1,   1,   1,1.01269, -17.8293, 1.06000, 0.92000, 1.06000, 0.92000
   62,'62          ', 345.0000,1,   1,   1,   1,0.99480, -13.6737, 1.06000, 0.92000, 1.06000, 0.92000
   63,'63          ', 138.0000,1,   1,   1,   1,0.94824, -26.7750, 1.06000, 0.92000, 1.06000, 0.92000
   64,'64          ', 138.0000,1,   1,   1,   1,0.97060, -19.3577, 1.06000, 0.92000, 1.06000, 0.92000
   65,'65          ', 138.0000,1,   1,   1,   1,1.00010, -22.4964, 1.06000, 0.92000, 1.06000, 0.92000
   66,'66          ', 345.0000,1,   1,   1,   1,1.00478, -12.6082, 1.06000, 0.92000, 1.06000, 0.92000
   67,'67          ', 138.0000,1,   1,   1,   1,0.98452, -28.2713, 1.06000, 0.92000, 1.06000, 0.92000
   68,'68          ', 138.0000,1,   1,   1,   1,0.99526, -26.8433, 1.06000, 0.92000, 1.06000, 0.92000
   69,'69          ', 345.0000,2,   1,   1,   1,1.02000,  -4.6331, 1.10000, 0.98000, 1.10000, 0.98000
   70,'70          ', 138.0000,1,   1,   1,   1,1.00848,  -6.7199, 1.06000, 0.92000, 1.06000, 0.92000
   71,'71          ', 345.0000,1,   1,   1,   1,1.01056, -12.0302, 1.06000, 0.92000, 1.06000, 0.92000
   72,'72          ', 138.0000,2,   1,   1,   1,1.00502, -28.2035, 1.10000, 0.98000, 1.10000, 0.98000
   73,'73          ', 138.0000,1,   1,   1,   1,1.00153, -28.2753, 1.06000, 0.92000, 1.06000, 0.92000
   74,'74          ', 345.0000,1,   1,   1,   1,0.99425, -23.1212, 1.06000, 0.92000, 1.06000, 0.92000
   75,'75          ', 138.0000,1,   1,   1,   1,0.97133, -25.4461, 1.06000, 0.92000, 1.06000, 0.92000
   76,'76          ', 345.0000,2,   1,   1,   1,1.02000, -11.0144, 1.10000, 0.98000, 1.10000, 0.98000
   77,'77          ', 138.0000,1,   1,   1,   1,0.99376, -31.9901, 1.06000, 0.92000, 1.06000, 0.92000
   78,'78          ', 345.0000,2,   1,   1,   1,1.02000, -38.2777, 1.10000, 0.98000, 1.10000, 0.98000
   79,'79          ', 345.0000,1,   1,   1,   1,1.03827, -45.9446, 1.06000, 0.92000, 1.06000, 0.92000
   80,'80          ', 345.0000,2,   1,   1,   1,1.02000, -41.3564, 1.10000, 0.98000, 1.10000, 0.98000
   81,'81          ', 345.0000,1,   1,   1,   1,1.01643, -39.5020, 1.06000, 0.92000, 1.06000, 0.92000
   82,'82          ', 345.0000,2,   1,   1,   1,1.02000, -33.6263, 1.10000, 0.98000, 1.10000, 0.98000
   83,'83          ', 345.0000,1,   1,   1,   1,1.02063, -32.6031, 1.06000, 0.92000, 1.06000, 0.92000
   84,'84          ', 138.0000,2,   1,   1,   1,1.02000, -29.2476, 1.10000, 0.98000, 1.10000, 0.98000
   85,'85          ', 230.0000,1,   1,   1,   1,0.99263, -31.3448, 1.06000, 0.92000, 1.06000, 0.92000
   86,'86          ', 138.0000,1,   1,   1,   1,0.98599, -30.5101, 1.06000, 0.92000, 1.06000, 0.92000
   87,'87          ', 345.0000,1,   1,   1,   1,1.04334, -46.1305, 1.06000, 0.92000, 1.06000, 0.92000
   88,'88          ', 138.0000,1,   1,   1,   1,1.01109, -29.1145, 1.06000, 0.92000, 1.06000, 0.92000
   89,'89          ', 138.0000,1,   1,   1,   1,0.95298, -36.5514, 1.06000, 0.92000, 1.06000, 0.92000
   90,'90          ', 230.0000,1,   1,   1,   1,0.98670, -11.3576, 1.06000, 0.92000, 1.06000, 0.92000
   91,'91          ', 230.0000,1,   1,   1,   1,0.97274, -13.2614, 1.06000, 0.92000, 1.06000, 0.92000
   92,'92          ', 345.0000,1,   1,   1,   1,0.98210, -13.5638, 1.06000, 0.92000, 1.06000, 0.92000
   93,'93          ', 345.0000,1,   1,   1,   1,0.98513, -14.9298, 1.06000, 0.92000, 1.06000, 0.92000
   94,'94          ', 138.0000,1,   1,   1,   1,0.99240, -21.5703, 1.06000, 0.92000, 1.06000, 0.92000
   95,'95          ', 138.0000,1,   1,   1,   1,0.98067, -20.9078, 1.06000, 0.92000, 1.06000, 0.92000
   96,'96          ', 138.0000,1,   1,   1,   1,0.98167, -20.4140, 1.06000, 0.92000, 1.06000, 0.92000
   97,'97          ', 345.0000,1,   1,   1,   1,0.99420, -17.4067, 1.06000, 0.92000, 1.06000, 0.92000
   98,'98          ', 345.0000,1,   1,   1,   1,1.01511, -17.6387, 1.06000, 0.92000, 1.06000, 0.92000
   99,'99          ', 345.0000,1,   1,   1,   1,0.98661, -19.1500, 1.06000, 0.92000, 1.06000, 0.92000
  100,'100         ', 138.0000,1,   1,   1,   1,0.97912, -10.1377, 1.06000, 0.92000, 1.06000, 0.92000
  101,'101         ', 345.0000,1,   1,   1,   1,0.98201, -15.3220, 1.06000, 0.92000, 1.06000, 0.92000
  102,'102         ', 138.0000,1,   1,   1,   1,0.98053, -22.3232, 1.06000, 0.92000, 1.06000, 0.92000
  103,'103         ', 138.0000,2,   1,   1,   1,1.02000, -19.4136, 1.10000, 0.98000, 1.10000, 0.98000
  104,'104         ', 138.0000,1,   1,   1,   1,0.97250, -22.7384, 1.06000, 0.92000, 1.06000, 0.92000
  105,'105         ', 138.0000,1,   1,   1,   1,0.98305, -21.2251, 1.06000, 0.92000, 1.06000, 0.92000
  106,'106         ', 138.0000,1,   1,   1,   1,0.97599, -23.5631, 1.06000, 0.92000, 1.06000, 0.92000
  107,'107         ', 138.0000,1,   1,   1,   1,0.97679, -23.0033, 1.06000, 0.92000, 1.06000, 0.92000
  108,'108         ', 230.0000,1,   1,   1,   1,0.97484, -22.7249, 1.06000, 0.92000, 1.06000, 0.92000
  109,'109         ', 138.0000,1,   1,   1,   1,0.98100, -25.0744, 1.06000, 0.92000, 1.06000, 0.92000
  110,'110         ', 138.0000,1,   1,   1,   1,0.98332, -20.4516, 1.06000, 0.92000, 1.06000, 0.92000
  111,'111         ', 345.0000,1,   1,   1,   1,0.98784, -20.5830, 1.06000, 0.92000, 1.06000, 0.92000
  112,'112         ', 138.0000,1,   1,   1,   1,0.95998, -25.5073, 1.06000, 0.92000, 1.06000, 0.92000
  113,'113         ', 138.0000,1,   1,   1,   1,0.94902, -26.5916, 1.06000, 0.92000, 1.06000, 0.92000
  114,'114         ', 138.0000,1,   1,   1,   1,0.97915, -22.0535, 1.06000, 0.92000, 1.06000, 0.92000
  115,'115         ', 345.0000,1,   1,   1,   1,0.98575, -13.0608, 1.06000, 0.92000, 1.06000, 0.92000
  116,'116         ', 230.0000,1,   1,   1,   1,1.00578, -22.7615, 1.06000, 0.92000, 1.06000, 0.92000
  117,'117         ', 138.0000,1,   1,   1,   1,0.99209, -23.5941, 1.06000, 0.92000, 1.06000, 0.92000
  118,'118         ', 138.0000,1,   1,   1,   1,0.98175, -21.7796, 1.06000, 0.92000, 1.06000, 0.92000
  119,'119         ', 138.0000,1,   1,   1,   1,0.97845, -22.5976, 1.06000, 0.92000, 1.06000, 0.92000
  120,'120         ', 230.0000,2,   1,   1,   1,1.02000, -22.7028, 1.10000, 0.98000, 1.10000, 0.98000
  121,'121         ', 230.0000,1,   1,   1,   1,1.01523, -23.2040, 1.06000, 0.92000, 1.06000, 0.92000
  122,'122         ', 138.0000,1,   1,   1,   1,0.97712, -25.3328, 1.06000, 0.92000, 1.06000, 0.92000
  123,'123         ', 230.0000,1,   1,   1,   1,1.00678, -21.9252, 1.06000, 0.92000, 1.06000, 0.92000
  124,'124         ', 230.0000,1,   1,   1,   1,0.97156, -26.4193, 1.06000, 0.92000, 1.06000, 0.92000
  125,'125         ', 138.0000,1,   1,   1,   1,0.97561, -24.2521, 1.06000, 0.92000, 1.06000, 0.92000
  126,'126         ', 230.0000,1,   1,   1,   1,0.98559, -25.4808, 1.06000, 0.92000, 1.06000, 0.92000
  127,'127         ', 230.0000,1,   1,   1,   1,0.97953, -26.1176, 1.06000, 0.92000, 1.06000, 0.92000
  128,'128         ', 138.0000,2,   1,   1,   1,1.02000, -16.1458, 1.10000, 0.98000, 1.10000, 0.98000
  129,'129         ', 138.0000,1,   1,   1,   1,0.97038, -24.3357, 1.06000, 0.92000, 1.06000, 0.92000
  130,'130         ', 138.0000,2,   1,   1,   1,1.02000, -18.9756, 1.10000, 0.98000, 1.10000, 0.98000
  131,'131         ', 138.0000,1,   1,   1,   1,0.96354, -25.4756, 1.06000, 0.92000, 1.06000, 0.92000
  132,'132         ', 230.0000,1,   1,   1,   1,0.98694, -23.6569, 1.06000, 0.92000, 1.06000, 0.92000
  133,'133         ', 230.0000,1,   1,   1,   1,0.98665, -24.6676, 1.06000, 0.92000, 1.06000, 0.92000
  134,'134         ', 230.0000,1,   1,   1,   1,0.98158, -23.5769, 1.06000, 0.92000, 1.06000, 0.92000
  135,'135         ', 345.0000,1,   1,   1,   1,1.00595, -20.4191, 1.06000, 0.92000, 1.06000, 0.92000
  136,'136         ', 138.0000,1,   1,   1,   1,0.97579, -22.3452, 1.06000, 0.92000, 1.06000, 0.92000
  137,'137         ', 345.0000,1,   1,   1,   1,1.01419, -19.3568, 1.06000, 0.92000, 1.06000, 0.92000
  138,'138         ', 345.0000,1,   1,   1,   1,0.98554, -19.6438, 1.06000, 0.92000, 1.06000, 0.92000
  139,'139         ', 345.0000,1,   1,   1,   1,1.01818, -25.0094, 1.06000, 0.92000, 1.06000, 0.92000
  140,'140         ', 138.0000,1,   1,   1,   1,0.99179,  -8.6006, 1.06000, 0.92000, 1.06000, 0.92000
  141,'141         ', 345.0000,2,   1,   1,   1,1.02000,  -4.6196, 1.10000, 0.98000, 1.10000, 0.98000
  142,'142         ', 230.0000,1,   1,   1,   1,0.97530, -25.8294, 1.06000, 0.92000, 1.06000, 0.92000
  143,'143         ', 230.0000,2,   1,   1,   1,1.02000, -18.1841, 1.10000, 0.98000, 1.10000, 0.98000
  144,'144         ', 230.0000,1,   1,   1,   1,1.01151, -19.5081, 1.06000, 0.92000, 1.06000, 0.92000
  145,'145         ', 138.0000,1,   1,   1,   1,0.98960, -20.1464, 1.06000, 0.92000, 1.06000, 0.92000
  146,'146         ', 345.0000,2,   1,   1,   1,1.02000, -18.6075, 1.10000, 0.98000, 1.10000, 0.98000
  147,'147         ', 138.0000,1,   1,   1,   1,0.97392, -23.2210, 1.06000, 0.92000, 1.06000, 0.92000
  148,'148         ', 345.0000,1,   1,   1,   1,0.98583, -14.3517, 1.06000, 0.92000, 1.06000, 0.92000
  149,'149         ', 138.0000,2,   1,   1,   1,1.02000, -17.6254, 1.10000, 0.98000, 1.10000, 0.98000
  150,'150         ', 345.0000,1,   1,   1,   1,0.97057, -26.9982, 1.06000, 0.92000, 1.06000, 0.92000
  151,'151         ', 345.0000,1,   1,   1,   1,1.01618, -19.1439, 1.06000, 0.92000, 1.06000, 0.92000
  152,'152         ', 138.0000,1,   1,   1,   1,0.95699, -25.7103, 1.06000, 0.92000, 1.06000, 0.92000
  153,'153         ', 345.0000,1,   1,   1,   1,1.00203, -20.8928, 1.06000, 0.92000, 1.06000, 0.92000
  154,'154         ', 230.0000,1,   1,   1,   1,0.98459, -30.6165, 1.06000, 0.92000, 1.06000, 0.92000
  155,'155         ', 138.0000,1,   1,   1,   1,0.96371, -30.9353, 1.06000, 0.92000, 1.06000, 0.92000
  156,'156         ', 345.0000,1,   1,   1,   1,1.00377, -24.3963, 1.06000, 0.92000, 1.06000, 0.92000
  157,'157         ', 138.0000,2,   1,   1,   1,1.02000, -21.7794, 1.10000, 0.98000, 1.10000, 0.98000
  158,'158         ', 138.0000,1,   1,   1,   1,0.98879, -26.7835, 1.06000, 0.92000, 1.06000, 0.92000
  159,'159         ', 345.0000,1,   1,   1,   1,1.00125, -28.5103, 1.06000, 0.92000, 1.06000, 0.92000
  160,'160         ', 230.0000,1,   1,   1,   1,0.96971, -33.3130, 1.06000, 0.92000, 1.06000, 0.92000
  161,'161         ', 138.0000,1,   1,   1,   1,0.99130, -27.0994, 1.06000, 0.92000, 1.06000, 0.92000
  162,'162         ', 345.0000,2,   1,   1,   1,1.02000, -19.5254, 1.10000, 0.98000, 1.10000, 0.98000
  163,'163         ', 230.0000,1,   1,   1,   1,1.00312, -24.3063, 1.06000, 0.92000, 1.06000, 0.92000
  164,'164         ', 138.0000,1,   1,   1,   1,0.98009, -25.2436, 1.06000, 0.92000, 1.06000, 0.92000
  165,'165         ', 230.0000,2,   1,   1,   1,1.02000, -16.4263, 1.10000, 0.98000, 1.10000, 0.98000
  166,'166         ', 138.0000,2,   1,   1,   1,1.02000, -22.4302, 1.10000, 0.98000, 1.10000, 0.98000
  167,'167         ', 345.0000,1,   1,   1,   1,1.02441, -36.9102, 1.06000, 0.92000, 1.06000, 0.92000
  168,'168         ', 230.0000,1,   1,   1,   1,0.98716, -25.2700, 1.06000, 0.92000, 1.06000, 0.92000
  169,'169         ', 138.0000,1,   1,   1,   1,0.99019, -26.7539, 1.06000, 0.92000, 1.06000, 0.92000
  170,'170         ', 138.0000,1,   1,   1,   1,0.95173, -12.3474, 1.06000, 0.92000, 1.06000, 0.92000
  171,'171         ', 138.0000,1,   1,   1,   1,0.96068, -11.8879, 1.06000, 0.92000, 1.06000, 0.92000
  172,'172         ', 138.0000,1,   1,   1,   1,0.97812,  -9.0533, 1.06000, 0.92000, 1.06000, 0.92000
  173,'173         ', 138.0000,1,   1,   1,   1,0.97563,  -8.5928, 1.06000, 0.92000, 1.06000, 0.92000
  174,'174         ', 345.0000,1,   1,   1,   1,1.01137, -13.6749, 1.06000, 0.92000, 1.06000, 0.92000
  175,'175         ', 138.0000,2,   1,   1,   1,1.02000, -13.1829, 1.10000, 0.98000, 1.10000, 0.98000
  176,'176         ', 345.0000,2,   1,   1,   1,1.02000, -18.4812, 1.10000, 0.98000, 1.10000, 0.98000
  177,'177         ', 230.0000,1,   1,   1,   1,1.01009, -14.8180, 1.06000, 0.92000, 1.06000, 0.92000
  178,'178         ', 138.0000,1,   1,   1,   1,0.99319, -18.1568, 1.06000, 0.92000, 1.06000, 0.92000
  179,'179         ', 138.0000,1,   1,   1,   1,0.99225, -18.2231, 1.06000, 0.92000, 1.06000, 0.92000
  180,'180         ', 345.0000,1,   1,   1,   1,1.01134, -13.7300, 1.06000, 0.92000, 1.06000, 0.92000
  181,'181         ', 345.0000,1,   1,   1,   1,1.02961, -17.5995, 1.06000, 0.92000, 1.06000, 0.92000
  182,'182         ', 345.0000,1,   1,   1,   1,0.99534, -22.7676, 1.06000, 0.92000, 1.06000, 0.92000
  183,'183         ', 345.0000,1,   1,   1,   1,1.00568, -22.7417, 1.06000, 0.92000, 1.06000, 0.92000
  184,'184         ', 230.0000,1,   1,   1,   1,1.01353, -13.1710, 1.06000, 0.92000, 1.06000, 0.92000
  185,'185         ', 345.0000,1,   1,   1,   1,1.00932, -11.1815, 1.06000, 0.92000, 1.06000, 0.92000
  186,'186         ', 345.0000,1,   1,   1,   1,1.00909, -23.2707, 1.06000, 0.92000, 1.06000, 0.92000
  187,'187         ', 345.0000,1,   1,   1,   1,1.01961, -21.1849, 1.06000, 0.92000, 1.06000, 0.92000
  188,'188         ', 345.0000,1,   1,   1,   1,1.01678,  -3.8841, 1.06000, 0.92000, 1.06000, 0.92000
  189,'189         ', 345.0000,1,   1,   1,   1,1.01656,  -4.5232, 1.06000, 0.92000, 1.06000, 0.92000
  190,'190         ', 345.0000,1,   1,   1,   1,1.01506, -10.2654, 1.06000, 0.92000, 1.06000, 0.92000
  191,'191         ', 345.0000,1,   1,   1,   1,1.01659, -14.3100, 1.06000, 0.92000, 1.06000, 0.92000
  192,'192         ', 230.0000,1,   1,   1,   1,1.01028, -18.7054, 1.06000, 0.92000, 1.06000, 0.92000
  193,'193         ', 345.0000,1,   1,   1,   1,1.01309, -17.7222, 1.06000, 0.92000, 1.06000, 0.92000
  194,'194         ', 345.0000,1,   1,   1,   1,1.00951, -19.7654, 1.06000, 0.92000, 1.06000, 0.92000
  195,'195         ', 230.0000,1,   1,   1,   1,0.98326, -21.4566, 1.06000, 0.92000, 1.06000, 0.92000
  196,'196         ', 345.0000,1,   1,   1,   1,0.98724, -19.7241, 1.06000, 0.92000, 1.06000, 0.92000
  197,'197         ', 230.0000,1,   1,   1,   1,0.98865, -22.0466, 1.06000, 0.92000, 1.06000, 0.92000
  198,'198         ', 345.0000,1,   1,   1,   1,0.98788, -19.4544, 1.06000, 0.92000, 1.06000, 0.92000
  199,'199         ', 345.0000,1,   1,   1,   1,0.99040, -12.4151, 1.06000, 0.92000, 1.06000, 0.92000
  200,'200         ', 345.0000,1,   1,   1,   1,1.01183, -15.4066, 1.06000, 0.92000, 1.06000, 0.92000
...
0 / END OF BUS DATA, BEGIN LOAD DATA
    1,'1 ',1,   1,   1,     0.000,     0.000,     0.000,     0.000,     0.000,     0.000,   1,1
    2,'1 ',1,   1,   1,   101.139,    28.893,     0.000,     0.000,     0.000,     0.000,   1,1
    3,'1 ',1,   1,   1,     0.000,     0.000,     0.000,     0.000,     0.000,     0.000,   1,1
    4,'1 ',1,   1,   1,    73.778,    19.058,     0.000,     0.000,     0.000,     0.000,   1,1
    5,'1 ',1,   1,   1,    86.851,    32.860,     0.000,     0.000,     0.000,     0.000,   1,1
    6,'1 ',1,   1,   1,    78.696,    25.573,     0.000,     0.000,     0.000,     0.000,   1,1
    7,'1 ',1,   1,   1,   133.367,    53.508,     0.000,     0.000,     0.000,     0.000,   1,1
    8,'1 ',1,   1,   1,   106.380,    32.638,     0.000,     0.000,     0.000,     0.000,   1,1
    9,'1 ',1,   1,   1,     0.000,     0.000,     0.000,     0.000,     0.000,     0.000,   1,1
   10,'1 ',1,   1,   1,    80.417,    22.574,     0.000,     0.000,     0.000,     0.000,   1,1
   11,'1 ',1,   1,   1,     0.000,     0.000,     0.000,     0.000,     0.000,     0.000,   1,1
   12,'1 ',1,   1,   1,     2.400,     0.762,     0.000,     0.000,     0.000,     0.000,   1,1
   13,'1 ',1,   1,   1,     0.000,     0.000,     0.000,     0.000,     0.000,     0.000,   1,1
   14,'1 ',1,   1,   1,   103.763,    32.498,     0.000,     0.000,     0.000,     0.000,   1,1
   15,'1 ',1,   1,   1,   124.799,    30.225,     0.000,     0.000,     0.000,     0.000,   1,1
   16,'1 ',1,   1,   1,   146.123,    35.657,     0.000,     0.000,     0.000,     0.000,   1,1
   17,'1 ',1,   1,   1,    79.220,    24.509,     0.000,     0.000,     0.000,     0.000,   1,1
   18,'1 ',1,   1,   1,    90.243,    23.901,     0.000,     0.000,     0.000,     0.000,   1,1
   19,'1 ',1,   1,   1,    93.169,    28.839,     0.000,     0.000,     0.000,     0.000,   1,1
   20,'1 ',1,   1,   1,    90.903,    28.284,     0.000,     0.000,     0.000,     0.000,   1,1
   21,'1 ',1,   1,   1,   128.602,    33.700,     0.000,     0.000,     0.000,     0.000,   1,1
   22,'1 ',1,   1,   1,   114.810,    36.412,     0.000,     0.000,     0.000,     0.000,   1,1
   23,'1 ',1,   1,   1,    87.448,    25.483,     0.000,     0.000,     0.000,     0.000,   1,1
   24,'1 ',1,   1,   1,   104.876,    36.580,     0.000,     0.000,     0.000,     0.000,   1,1
   25,'1 ',1,   1,   1,    69.888,    16.853,     0.000,     0.000,     0.000,     0.000,   1,1
   26,'1 ',1,   1,   1,    85.949,    23.637,     0.000,     0.000,     0.000,     0.000,   1,1
   27,'1 ',1,   1,   1,    89.445,    24.752,     0.000,     0.000,     0.000,     0.000,   1,1
   28,'1 ',1,   1,   1,   130.992,    37.202,     0.000,     0.000,     0.000,     0.000,   1,1
   29,'1 ',1,   1,   1,    81.988,    22.323,     0.000,     0.000,     0.000,     0.000,   1,1
   30,'1 ',1,   1,   1,     0.000,     0.000,     0.000,     0.000,     0.000,     0.000,   1,1
   31,'1 ',1,   1,   1,     0.000,     0.000,     0.000,     0.000,     0.000,     0.000,   1,1
   32,'1 ',1,   1,   1,     0.000,     0.000,     0.000,     0.000,     0.000,     0.000,   1,1
   33,'1 ',1,   1,   1,   120.541,    31.859,     0.000,     0.000,     0.000,     0.000,   1,1
   34,'1 ',1,   1,   1,    74.862,    23.098,     0.000,     0.000,     0.000,     0.000,   1,1
   35,'1 ',1,   1,   1,     0.000,     0.000,     0.000,     0.000,     0.000,     0.000,   1,1
   36,'1 ',1,   1,   1,     0.000,     0.000,     0.000,     0.000,     0.000,     0.000,   1,1
   37,'1 ',1,   1,   1,     0.000,     0.000,     0.000,     0.000,     0.000,     0.000,   1,1
   38,'1 ',1,   1,   1,     0.000,     0.000,     0.000,     0.000,     0.000,     0.000,   1,1
   39,'1 ',1,   1,   1,    79.831,    24.251,     0.000,     0.000,     0.000,     0.000,   1,1
   40,'1 ',1,   1,   1,    81.735,    27.051,     0.000,     0.000,     0.000,     0.000,   1,1
   41,'1 ',1,   1,   1,   106.764,    28.176,     0.000,     0.000,     0.000,     0.000,   1,1
   42,'1 ',1,   1,   1,   118.299,    33.686,     0.000,     0.000,     0.000,     0.000,   1,1
   43,'1 ',1,   1,   1,   105.393,    31.874,     0.000,     0.000,     0.000,     0.000,   1,1
   44,'1 ',1,   1,   1,    75.126,    21.518,     0.000,     0.000,     0.000,     0.000,   1,1
   45,'1 ',1,   1,   1,   107.534,    29.346,     0.000,     0.000,     0.000,     0.000,   1,1
   46,'1 ',1,   1,   1,    96.550,    29.269,     0.000,     0.000,     0.000,     0.000,   1,1
   47,'1 ',1,   1,   1,    87.125,    26.363,     0.000,     0.000,     0.000,     0.000,   1,1
   48,'1 ',1,   1,   1,   104.221,    33.893,     0.000,     0.000,     0.000,     0.000,   1,1
   49,'1 ',1,   1,   1,    68.743,    23.856,     0.000,     0.000,     0.000,     0.000,   1,1
   50,'1 ',1,   1,   1,   101.208,    29.171,     0.000,     0.000,     0.000,     0.000,   1,1
   51,'1 ',1,   1,   1,    85.555,    29.919,     0.000,     0.000,     0.000,     0.000,   1,1
   52,'1 ',1,   1,   1,   108.949,    33.165,     0.000,     0.000,     0.000,     0.000,   1,1
   53,'1 ',1,   1,   1,   157.779,    40.546,     0.000,     0.000,     0.000,     0.000,   1,1
   54,'1 ',1,   1,   1,    74.314,    30.041,     0.000,     0.000,     0.000,     0.000,   1,1
   55,'1 ',1,   1,   1,   103.817,    28.817,     0.000,     0.000,     0.000,     0.000,   1,1
   56,'1 ',1,   1,   1,   115.946,    34.094,     0.000,     0.000,     0.000,     0.000,   1,1
   57,'1 ',1,   1,   1,    64.327,    21.015,     0.000,     0.000,     0.000,     0.000,   1,1
   58,'1 ',1,   1,   1,   131.280,    45.306,     0.000,     0.000,     0.000,     0.000,   1,1
   59,'1 ',1,   1,   1,    83.072,    30.829,     0.000,     0.000,     0.000,     0.000,   1,1
   60,'1 ',1,   1,   1,    94.139,    31.014,     0.000,     0.000,     0.000,     0.000,   1,1
   61,'1 ',1,   1,   1,   111.426,    36.834,     0.000,     0.000,     0.000,     0.000,   1,1
   62,'1 ',1,   1,   1,   103.810,    32.499,     0.000,     0.000,     0.000,     0.000,   1,1
   63,'1 ',1,   1,   1,    81.222,    26.798,     0.000,     0.000,     0.000,     0.000,   1,1
   64,'1 ',1,   1,   1,   166.539,    46.902,     0.000,     0.000,     0.000,     0.000,   1,1
   65,'1 ',1,   1,   1,    71.112,    22.372,     0.000,     0.000,     0.000,     0.000,   1,1
   66,'1 ',1,   1,   1,    81.734,    24.423,     0.000,     0.000,     0.000,     0.000,   1,1
   67,'1 ',1,   1,   1,    95.201,    28.785,     0.000,     0.000,     0.000,     0.000,   1,1
   68,'1 ',1,   1,   1,   113.329,    32.816,     0.000,     0.000,     0.000,     0.000,   1,1
   69,'1 ',1,   1,   1,    65.859,    23.302,     0.000,     0.000,     0.000,     0.000,   1,1
   70,'1 ',1,   1,   1,    90.392,    31.293,     0.000,     0.000,     0.000,     0.000,   1,1
   71,'1 ',1,   1,   1,    71.596,    26.141,     0.000,     0.000,     0.000,     0.000,   1,1
   72,'1 ',1,   1,   1,    63.642,    22.987,     0.000,     0.000,     0.000,     0.000,   1,1
   73,'1 ',1,   1,   1,    76.784,    27.068,     0.000,     0.000,     0.000,     0.000,   1,1
   74,'1 ',1,   1,   1,    83.919,    23.472,     0.000,     0.000,     0.000,     0.000,   1,1
   75,'1 ',1,   1,   1,    88.729,    29.742,     0.000,     0.000,     0.000,     0.000,   1,1
   76,'1 ',1,   1,   1,   117.574,    28.339,     0.000,     0.000,     0.000,     0.000,   1,1
   77,'1 ',1,   1,   1,    84.447,    24.457,     0.000,     0.000,     0.000,     0.000,   1,1
   78,'1 ',1,   1,   1,   103.330,    28.946,     0.000,     0.000,     0.000,     0.000,   1,1
   79,'1 ',1,   1,   1,   132.392,    37.155,     0.000,     0.000,     0.000,     0.000,   1,1
   80,'1 ',1,   1,   1,   109.579,    27.082,     0.000,     0.000,     0.000,     0.000,   1,1
   81,'1 ',1,   1,   1,   116.898,    29.215,     0.000,     0.000,     0.000,     0.000,   1,1
   82,'1 ',1,   1,   1,    81.705,    25.080,     0.000,     0.000,     0.000,     0.000,   1,1
   83,'1 ',1,   1,   1,    86.229,    28.104,     0.000,     0.000,     0.000,     0.000,   1,1
   84,'1 ',1,   1,   1,    67.171,    19.072,     0.000,     0.000,     0.000,     0.000,   1,1
   85,'1 ',1,   1,   1,    74.772,    23.526,     0.000,     0.000,     0.000,     0.000,   1,1
   86,'1 ',1,   1,   1,   113.062,    31.836,     0.000,     0.000,     0.000,     0.000,   1,1
   87,'1 ',1,   1,   1,   126.167,    37.429,     0.000,     0.000,     0.000,     0.000,   1,1
   88,'1 ',1,   1,   1,   100.926,    33.543,     0.000,     0.000,     0.000,     0.000,   1,1
   89,'1 ',1,   1,   1,    79.343,    24.474,     0.000,     0.000,     0.000,     0.000,   1,1
   90,'1 ',1,   1,   1,    73.476,    27.586,     0.000,     0.000,     0.000,     0.000,   1,1
   91,'1 ',1,   1,   1,    88.105,    25.714,     0.000,     0.000,     0.000,     0.000,   1,1
   92,'1 ',1,   1,   1,    83.019,    25.937,     0.000,     0.000,     0.000,     0.000,   1,1
   93,'1 ',1,   1,   1,    92.614,    25.614,     0.000,     0.000,     0.000,     0.000,   1,1
   94,'1 ',1,   1,   1,   114.475,    35.422,     0.000,     0.000,     0.000,     0.000,   1,1
   95,'1 ',1,   1,   1,   103.893,    31.028,     0.000,     0.000,     0.000,     0.000,   1,1
   96,'1 ',1,   1,   1,   118.535,    32.055,     0.000,     0.000,     0.000,     0.000,   1,1
   97,'1 ',1,   1,   1,   117.222,    33.459,     0.000,     0.000,     0.000,     0.000,   1,1
   98,'1 ',1,   1,   1,   121.634,    34.898,     0.000,     0.000,     0.000,     0.000,   1,1
   99,'1 ',1,   1,   1,   116.305,    29.530,     0.000,     0.000,     0.000,     0.000,   1,1
  100,'1 ',1,   1,   1,    92.318,    30.252,     0.000,     0.000,     0.000,     0.000,   1,1
  101,'1 ',1,   1,   1,    86.919,    28.939,     0.000,     0.000,     0.000,     0.000,   1,1
  102,'1 ',1,   1,   1,    60.229,    22.395,     0.000,     0.000,     0.000,     0.000,   1,1
  103,'1 ',1,   1,   1,   132.947,    34.873,     0.000,     0.000,     0.000,     0.000,   1,1
  104,'1 ',1,   1,   1,    98.978,    26.885,     0.000,     0.000,     0.000,     0.000,   1,1
  105,'1 ',1,   1,   1,    76.035,    22.909,     0.000,     0.000,     0.000,     0.000,   1,1
  106,'1 ',1,   1,   1,    76.138,    27.681,     0.000,     0.000,     0.000,     0.000,   1,1
  107,'1 ',1,   1,   1,    87.571,    25.507,     0.000,     0.000,     0.000,     0.000,   1,1
  108,'1 ',1,   1,   1,   140.756,    36.824,     0.000,     0.000,     0.000,     0.000,   1,1
  109,'1 ',1,   1,   1,   105.978,    34.735,     0.000,     0.000,     0.000,     0.000,   1,1
  110,'1 ',1,   1,   1,    61.275,    23.370,     0.000,     0.000,     0.000,     0.000,   1,1
  111,'1 ',1,   1,   1,   103.138,    29.706,     0.000,     0.000,     0.000,     0.000,   1,1
  112,'1 ',1,   1,   1,   136.686,    37.450,     0.000,     0.000,     0.000,     0.000,   1,1
  113,'1 ',1,   1,   1,    60.105,    21.124,     0.000,     0.000,     0.000,     0.000,   1,1
  114,'1 ',1,   1,   1,    62.037,    21.531,     0.000,     0.000,     0.000,     0.000,   1,1
  115,'1 ',1,   1,   1,    69.245,    23.926,     0.000,     0.000,     0.000,     0.000,   1,1
  116,'1 ',1,   1,   1,   123.712,    32.174,     0.000,     0.000,     0.000,     0.000,   1,1
  117,'1 ',1,   1,   1,    95.397,    26.239,     0.000,     0.000,     0.000,     0.000,   1,1
  118,'1 ',1,   1,   1,    61.339,    24.548,     0.000,     0.000,     0.000,     0.000,   1,1
  119,'1 ',1,   1,   1,   117.775,    33.650,     0.000,     0.000,     0.000,     0.000,   1,1
  120,'1 ',1,   1,   1,    75.851,    21.949,     0.000,     0.000,     0.000,     0.000,   1,1
  121,'1 ',1,   1,   1,    90.283,    24.667,     0.000,     0.000,     0.000,     0.000,   1,1
  122,'1 ',1,   1,   1,    75.790,    24.348,     0.000,     0.000,     0.000,     0.000,   1,1
  123,'1 ',1,   1,   1,   107.693,    32.797,     0.000,     0.000,     0.000,     0.000,   1,1
  124,'1 ',1,   1,   1,   109.368,    30.439,     0.000,     0.000,     0.000,     0.000,   1,1
  125,'1 ',1,   1,   1,   113.963,    32.933,     0.000,     0.000,     0.000,     0.000,   1,1
  126,'1 ',1,   1,   1,    96.195,    29.338,     0.000,     0.000,     0.000,     0.000,   1,1
  127,'1 ',1,   1,   1,   109.926,    28.057,     0.000,     0.000,     0.000,     0.000,   1,1
  128,'1 ',1,   1,   1,   118.387,    28.542,     0.000,     0.000,     0.000,     0.000,   1,1
  129,'1 ',1,   1,   1,    92.299,    26.429,     0.000,     0.000,     0.000,     0.000,   1,1
  130,'1 ',1,   1,   1,    96.933,    29.381,     0.000,     0.000,     0.000,     0.000,   1,1
  131,'1 ',1,   1,   1,   130.609,    31.336,     0.000,     0.000,     0.000,     0.000,   1,1
  132,'1 ',1,   1,   1,   121.429,    27.304,     0.000,     0.000,     0.000,     0.000,   1,1
  133,'1 ',1,   1,   1,    81.104,    24.299,     0.000,     0.000,     0.000,     0.000,   1,1
  134,'1 ',1,   1,   1,    94.367,    23.586,     0.000,     0.000,     0.000,     0.000,   1,1
  135,'1 ',1,   1,   1,    71.108,    25.013,     0.000,     0.000,     0.000,     0.000,   1,1
  136,'1 ',1,   1,   1,    86.919,    26.153,     0.000,     0.000,     0.000,     0.000,   1,1
  137,'1 ',1,   1,   1,    70.674,    27.586,     0.000,     0.000,     0.000,     0.000,   1,1
  138,'1 ',1,   1,   1,   115.806,    31.341,     0.000,     0.000,     0.000,     0.000,   1,1
  139,'1 ',1,   1,   1,   100.654,    28.446,     0.000,     0.000,     0.000,     0.000,   1,1
  140,'1 ',1,   1,   1,   130.331,    33.701,     0.000,     0.000,     0.000,     0.000,   1,1
  141,'1 ',1,   1,   1,   119.140,    32.710,     0.000,     0.000,     0.000,     0.000,   1,1
  142,'1 ',1,   1,   1,    81.256,    24.789,     0.000,     0.000,     0.000,     0.000,   1,1
  143,'1 ',1,   1,   1,   113.508,    33.278,     0.000,     0.000,     0.000,     0.000,   1,1
  144,'1 ',1,   1,   1,   133.131,    32.394,     0.000,     0.000,     0.000,     0.000,   1,1
  145,'1 ',1,   1,   1,   105.618,    30.165,     0.000,     0.000,     0.000,     0.000,   1,1
  146,'1 ',1,   1,   1,   112.442,    30.930,     0.000,     0.000,     0.000,     0.000,   1,1
  147,'1 ',1,   1,   1,    74.549,    22.032,     0.000,     0.000,     0.000,     0.000,   1,1
  148,'1 ',1,   1,   1,    84.331,    24.457,     0.000,     0.000,     0.000,     0.000,   1,1
  149,'1 ',1,   1,   1,   136.654,    32.210,     0.000,     0.000,     0.000,     0.000,   1,1
  150,'1 ',1,   1,   1,   100.290,    27.411,     0.000,     0.000,     0.000,     0.000,   1,1
  151,'1 ',1,   1,   1,    86.308,    27.378,     0.000,     0.000,     0.000,     0.000,   1,1
  152,'1 ',1,   1,   1,    71.318,    19.999,     0.000,     0.000,     0.000,     0.000,   1,1
  153,'1 ',1,   1,   1,    81.287,    27.922,     0.000,     0.000,     0.000,     0.000,   1,1
  154,'1 ',1,   1,   1,    98.699,    30.606,     0.000,     0.000,     0.000,     0.000,   1,1
  155,'1 ',1,   1,   1,    94.758,    31.174,     0.000,     0.000,     0.000,     0.000,   1,1
  156,'1 ',1,   1,   1,    96.711,    29.708,     0.000,     0.000,     0.000,     0.000,   1,1
  157,'1 ',1,   1,   1,    98.120,    32.676,     0.000,     0.000,     0.000,     0.000,   1,1
  158,'1 ',1,   1,   1,    96.740,    25.476,     0.000,     0.000,     0.000,     0.000,   1,1
  159,'1 ',1,   1,   1,   103.295,    29.787,     0.000,     0.000,     0.000,     0.000,   1,1
  160,'1 ',1,   1,   1,   120.585,    36.235,     0.000,     0.000,     0.000,     0.000,   1,1
  161,'1 ',1,   1,   1,    66.739,    20.369,     0.000,     0.000,     0.000,     0.000,   1,1
  162,'1 ',1,   1,   1,    94.137,    29.451,     0.000,     0.000,     0.000,     0.000,   1,1
  163,'1 ',1,   1,   1,   115.040,    37.975,     0.000,     0.000,     0.000,     0.000,   1,1
  164,'1 ',1,   1,   1,    88.291,    30.860,     0.000,     0.000,     0.000,     0.000,   1,1
  165,'1 ',1,   1,   1,    94.805,    27.956,     0.000,     0.000,     0.000,     0.000,   1,1
  166,'1 ',1,   1,   1,    88.847,    26.268,     0.000,     0.000,     0.000,     0.000,   1,1
  167,'1 ',1,   1,   1,    89.981,    25.663,     0.000,     0.000,     0.000,     0.000,   1,1
  168,'1 ',1,   1,   1,    59.657,    22.152,     0.000,     0.000,     0.000,     0.000,   1,1
  169,'1 ',1,   1,   1,    89.850,    29.080,     0.000,     0.000,     0.000,     0.000,   1,1
  170,'1 ',1,   1,   1,    99.287,    33.328,     0.000,     0.000,     0.000,     0.000,   1,1
  171,'1 ',1,   1,   1,    86.904,    25.402,     0.000,     0.000,     0.000,     0.000,   1,1
  172,'1 ',1,   1,   1,   100.332,    31.805,     0.000,     0.000,     0.000,     0.000,   1,1
  173,'1 ',1,   1,   1,    89.421,    27.409,     0.000,     0.000,     0.000,     0.000,   1,1
  174,'1 ',1,   1,   1,   106.494,    32.603,     0.000,     0.000,     0.000,     0.000,   1,1
  175,'1 ',1,   1,   1,    87.276,    29.992,     0.000,     0.000,     0.000,     0.000,   1,1
  176,'1 ',1,   1,   1,   104.060,    33.310,     0.000,     0.000,     0.000,     0.000,   1,1
  177,'1 ',1,   1,   1,   145.045,    49.008,     0.000,     0.000,     0.000,     0.000,   1,1
  178,'1 ',1,   1,   1,    79.902,    23.788,     0.000,     0.000,     0.000,     0.000,   1,1
  179,'1 ',1,   1,   1,     7.417,     2.274,     0.000,     0.000,     0.000,     0.000,   1,1
  180,'1 ',1,   1,   1,    10.985,     3.273,     0.000,     0.000,     0.000,     0.000,   1,1
  181,'1 ',1,   1,   1,     0.000,     0.000,     0.000,     0.000,     0.000,     0.000,   1,1
  182,'1 ',1,   1,   1,     0.000,     0.000,     0.000,     0.000,     0.000,     0.000,   1,1
  183,'1 ',1,   1,   1,     0.000,     0.000,     0.000,     0.000,     0.000,     0.000,   1,1
  184,'1 ',1,   1,   1,     0.000,     0.000,     0.000,     0.000,     0.000,     0.000,   1,1
  185,'1 ',1,   1,   1,     0.000,     0.000,     0.000,     0.000,     0.000,     0.000,   1,1
  186,'1 ',1,   1,   1,     0.000,     0.000,     0.000,     0.000,     0.000,     0.000,   1,1
  187,'1 ',1,   1,   1,     0.000,     0.000,     0.000,     0.000,     0.000,     0.000,   1,1
  188,'1 ',1,   1,   1,     0.000,     0.000,     0.000,     0.000,     0.000,     0.000,   1,1
  189,'1 ',1,   1,   1,     0.000,     0.000,     0.000,     0.000,     0.000,     0.000,   1,1
  190,'1 ',1,   1,   1,     0.000,     0.000,     0.000,     0.000,     0.000,     0.000,   1,1
  191,'1 ',1,   1,   1,     0.000,     0.000,     0.000,     0.000,     0.000,     0.000,   1,1
  192,'1 ',1,   1,   1,     0.000,     0.000,     0.000,     0.000,     0.000,     0.000,   1,1
  193,'1 ',1,   1,   1,     0.000,     0.000,     0.000,     0.000,     0.000,     0.000,   1,1
  194,'1 ',1,   1,   1,     0.000,     0.000,     0.000,     0.000,     0.000,     0.000,   1,1
  195,'1 ',1,   1,   1,     0.000,     0.000,     0.000,     0.000,     0.000,     0.000,   1,1
  196,'1 ',1,   1,   1,     0.000,     0.000,     0.000,     0.000,     0.000,     0.000,   1,1
  197,'1 ',1,   1,   1,     0.000,     0.000,     0.000,     0.000,     0.000,     0.000,   1,1
  198,'1 ',1,   1,   1,     0.000,     0.000,     0.000,     0.000,     0.000,     0.000,   1,1
  199,'1 ',1,   1,   1,     0.000,     0.000,     0.000,     0.000,     0.000,     0.000,   1,1
  200,'1 ',1,   1,   1,     0.000,     0.000,     0.000,     0.000,     0.000,     0.000,   1,1
...
0 / END OF LOAD DATA, BEGIN FIXED SHUNT DATA
0 / END OF FIXED SHUNT DATA, BEGIN GENERATOR DATA
    1,'1 ',     4.138,  -103.000,   103.000,  -103.000,1.02000,    0,   100.000,   0.00000,   1.00000,   0.00000,   0.00000,1.00000,1,  100.0,   338.000,     3.000,   1,1.0000,   0,1.0000,   0,1.0000,   0,1.0000,1, 1.0000
    3,'1 ',   411.077,    -0.381,   392.000,  -209.000,1.02000,    0,   100.000,   0.00000,   1.00000,   0.00000,   0.00000,1.00000,1,  100.0,   686.000,   298.000,   1,1.0000,   0,1.0000,   0,1.0000,   0,1.0000,0, 1.0000
    7,'1 ',   191.744,   176.982,   385.000,  -205.000,1.02000,    0,   100.000,   0.00000,   1.00000,   0.00000,   0.00000,1.00000,1,  100.0,   674.000,   139.000,   1,1.0000,   0,1.0000,   0,1.0000,   0,1.0000,0, 1.0000
    8,'1 ',   260.716,   127.110,   349.000,  -186.000,1.02000,    0,   100.000,   0.00000,   1.00000,   0.00000,   0.00000,1.00000,1,  100.0,   611.000,   189.000,   1,1.0000,   0,1.0000,   0,1.0000,   0,1.0000,0, 1.0000
   10,'1 ',  2157.770,   183.876,  1298.000,  -692.000,1.02000,    0,   100.000,   0.00000,   1.00000,   0.00000,   0.00000,1.00000,1,  100.0,  2271.000,  1406.000,   1,1.0000,   0,1.0000,   0,1.0000,   0,1.0000,0, 1.0000
   24,'1 ',   397.282,   161.186,   309.000,  -165.000,1.02000,    0,   100.000,   0.00000,   1.00000,   0.00000,   0.00000,1.00000,1,  100.0,   541.000,   288.000,   1,1.0000,   0,1.0000,   0,1.0000,   0,1.0000,0, 1.0000
   26,'1 ',   165.534,    25.006,   171.000,   -91.000,1.02000,    0,   100.000,   0.00000,   1.00000,   0.00000,   0.00000,1.00000,1,  100.0,   300.000,   120.000,   1,1.0000,   0,1.0000,   0,1.0000,   0,1.0000,0, 1.0000
   28,'1 ',   297.962,    83.387,   338.000,  -180.000,1.02000,    0,   100.000,   0.00000,   1.00000,   0.00000,   0.00000,1.00000,1,  100.0,   592.000,   216.000,   1,1.0000,   0,1.0000,   0,1.0000,   0,1.0000,0, 1.0000
   30,'1 ',   172.432,   -29.973,   150.000,   -80.000,1.02000,    0,   100.000,   0.00000,   1.00000,   0.00000,   0.00000,1.00000,1,  100.0,   263.000,   125.000,   1,1.0000,   0,1.0000,   0,1.0000,   0,1.0000,0, 1.0000
   31,'1 ',   332.448,    47.776,   457.000,  -244.000,1.02000,    0,   100.000,   0.00000,   1.00000,   0.00000,   0.00000,1.00000,1,  100.0,   800.000,   241.000,   1,1.0000,   0,1.0000,   0,1.0000,   0,1.0000,0, 1.0000
   32,'1 ',   224.851,     4.861,   390.000,  -208.000,1.02000,    0,   100.000,   0.00000,   1.00000,   0.00000,   0.00000,1.00000,1,  100.0,   683.000,   163.000,   1,1.0000,   0,1.0000,   0,1.0000,   0,1.0000,0, 1.0000
   33,'1 ',   522.812,   222.922,   379.000,  -202.000,1.02000,    0,   100.000,   0.00000,   1.00000,   0.00000,   0.00000,1.00000,1,  100.0,   664.000,   379.000,   1,1.0000,   0,1.0000,   0,1.0000,   0,1.0000,0, 1.0000
   34,'1 ',   406.938,   120.131,   707.000,  -377.000,1.02000,    0,   100.000,   0.00000,   1.00000,   0.00000,   0.00000,1.00000,1,  100.0,  1237.000,   295.000,   1,1.0000,   0,1.0000,   0,1.0000,   0,1.0000,0, 1.0000
   35,'1 ',  1274.614,   298.902,   792.000,  -422.000,1.02000,    0,   100.000,   0.00000,   1.00000,   0.00000,   0.00000,1.00000,1,  100.0,  1386.000,   924.000,   1,1.0000,   0,1.0000,   0,1.0000,   0,1.0000,0, 1.0000
   36,'1 ',   193.123,    86.638,   336.000,  -179.000,1.02000,    0,   100.000,   0.00000,   1.00000,   0.00000,   0.00000,1.00000,1,  100.0,   588.000,   140.000,   1,1.0000,   0,1.0000,   0,1.0000,   0,1.0000,0, 1.0000
   37,'1 ',   137.945,    55.789,   324.000,  -173.000,1.02000,    0,   100.000,   0.00000,   1.00000,   0.00000,   0.00000,1.00000,1,  100.0,   567.000,   100.000,   1,1.0000,   0,1.0000,   0,1.0000,   0,1.0000,0, 1.0000
   38,'1 ',   286.926,    20.438,   498.000,  -266.000,1.02000,    0,   100.000,   0.00000,   1.00000,   0.00000,   0.00000,1.00000,1,  100.0,   872.000,   208.000,   1,1.0000,   0,1.0000,   0,1.0000,   0,1.0000,0, 1.0000
   49,'1 ',   441.425,   105.585,   347.000,  -185.000,1.02000,    0,   100.000,   0.00000,   1.00000,   0.00000,   0.00000,1.00000,1,  100.0,   607.000,   320.000,   1,1.0000,   0,1.0000,   0,1.0000,   0,1.0000,0, 1.0000
   52,'1 ',   223.471,   177.261,   938.000,  -500.000,1.02000,    0,   100.000,   0.00000,   1.00000,   0.00000,   0.00000,1.00000,1,  100.0,  1642.000,   162.000,   1,1.0000,   0,1.0000,   0,1.0000,   0,1.0000,0, 1.0000
   54,'1 ',   286.926,    16.858,   312.000,  -166.000,1.02000,    0,   100.000,   0.00000,   1.00000,   0.00000,   0.00000,1.00000,1,  100.0,   546.000,   208.000,   1,1.0000,   0,1.0000,   0,1.0000,   0,1.0000,0, 1.0000
   56,'1 ',   573.852,   180.967,   416.000,  -222.000,1.02000,    0,   100.000,   0.00000,   1.00000,   0.00000,   0.00000,1.00000,1,  100.0,   728.000,   416.000,   1,1.0000,   0,1.0000,   0,1.0000,   0,1.0000,0, 1.0000
   69,'1 ',   205.538,   132.691,   297.000,  -158.000,1.02000,    0,   100.000,   0.00000,   1.00000,   0.00000,   0.00000,1.00000,1,  100.0,   520.000,   149.000,   1,1.0000,   0,1.0000,   0,1.0000,   0,1.0000,0, 1.0000
   72,'1 ',   117.253,   150.000,   150.000,   -80.000,1.02000,    0,   100.000,   0.00000,   1.00000,   0.00000,   0.00000,1.00000,1,  100.0,   263.000,    85.000,   1,1.0000,   0,1.0000,   0,1.0000,   0,1.0000,0, 1.0000
   76,'1 ',   600.062,   199.906,   504.000,  -269.000,1.02000,    0,   100.000,   0.00000,   1.00000,   0.00000,   0.00000,1.00000,1,  100.0,   882.000,   435.000,   1,1.0000,   0,1.0000,   0,1.0000,   0,1.0000,0, 1.0000
   78,'1 ',   179.329,   -65.252,   165.000,   -88.000,1.02000,    0,   100.000,   0.00000,   1.00000,   0.00000,   0.00000,1.00000,1,  100.0,   288.000,   130.000,   1,1.0000,   0,1.0000,   0,1.0000,   0,1.0000,0, 1.0000
   80,'1 ',   155.878,   -66.469,   330.000,  -176.000,1.02000,    0,   100.000,   0.00000,   1.00000,   0.00000,   0.00000,1.00000,1,  100.0,   578.000,   113.000,   1,1.0000,   0,1.0000,   0,1.0000,   0,1.0000,0, 1.0000
   82,'1 ',   242.784,   -31.109,   179.000,   -95.000,1.02000,    0,   100.000,   0.00000,   1.00000,   0.00000,   0.00000,1.00000,1,  100.0,   313.000,   176.000,   1,1.0000,   0,1.0000,   0,1.0000,   0,1.0000,0, 1.0000
   84,'1 ',   233.127,    43.726,   508.000,  -271.000,1.02000,    0,   100.000,   0.00000,   1.00000,   0.00000,   0.00000,1.00000,1,  100.0,   888.000,   169.000,   1,1.0000,   0,1.0000,   0,1.0000,   0,1.0000,0, 1.0000
  103,'1 ',   286.926,   220.557,   523.000,  -279.000,1.02000,    0,   100.000,   0.00000,   1.00000,   0.00000,   0.00000,1.00000,1,  100.0,   916.000,   208.000,   1,1.0000,   0,1.0000,   0,1.0000,   0,1.0000,0, 1.0000
  120,'1 ',   222.092,   372.802,   483.000,  -258.000,1.02000,    0,   100.000,   0.00000,   1.00000,   0.00000,   0.00000,1.00000,1,  100.0,   845.000,   161.000,   1,1.0000,   0,1.0000,   0,1.0000,   0,1.0000,0, 1.0000
  128,'1 ',   248.301,    24.628,   216.000,  -115.000,1.02000,    0,   100.000,   0.00000,   1.00000,   0.00000,   0.00000,1.00000,1,  100.0,   378.000,   180.000,   1,1.0000,   0,1.0000,   0,1.0000,   0,1.0000,0, 1.0000
  130,'1 ',   158.637,   100.516,   153.000,   -81.000,1.02000,    0,   100.000,   0.00000,   1.00000,   0.00000,   0.00000,1.00000,1,  100.0,   267.000,   115.000,   1,1.0000,   0,1.0000,   0,1.0000,   0,1.0000,0, 1.0000
  141,'1 ',  1209.780,   288.936,   967.000,  -515.000,1.02000,    0,   100.000,   0.00000,   1.00000,   0.00000,   0.00000,1.00000,1,  100.0,  1691.000,   877.000,   1,1.0000,   0,1.0000,   0,1.0000,   0,1.0000,0, 1.0000
  143,'1 ',   213.815,   114.202,   173.000,   -92.000,1.02000,    0,   100.000,   0.00000,   1.00000,   0.00000,   0.00000,1.00000,1,  100.0,   303.000,   155.000,   1,1.0000,   0,1.0000,   0,1.0000,   0,1.0000,0, 1.0000
  146,'1 ',   413.836,   312.604,   347.000,  -185.000,1.02000,    0,   100.000,   0.00000,   1.00000,   0.00000,   0.00000,1.00000,1,  100.0,   607.000,   300.000,   1,1.0000,   0,1.0000,   0,1.0000,   0,1.0000,0, 1.0000
  149,'1 ',   256.578,    54.198,   157.000,   -83.000,1.02000,    0,   100.000,   0.00000,   1.00000,   0.00000,   0.00000,1.00000,1,  100.0,   274.000,   186.000,   1,1.0000,   0,1.0000,   0,1.0000,   0,1.0000,0, 1.0000
  157,'1 ',   397.282,    83.777,   298.000,  -159.000,1.02000,    0,   100.000,   0.00000,   1.00000,   0.00000,   0.00000,1.00000,1,  100.0,   521.000,   288.000,   1,1.0000,   0,1.0000,   0,1.0000,   0,1.0000,0, 1.0000
  162,'1 ',   317.274,   114.142,   363.000,  -194.000,1.02000,    0,   100.000,   0.00000,   1.00000,   0.00000,   0.00000,1.00000,1,  100.0,   636.000,   230.000,   1,1.0000,   0,1.0000,   0,1.0000,   0,1.0000,0, 1.0000
  165,'1 ',  1078.732,    91.942,   745.000,  -397.000,1.02000,    0,   100.000,   0.00000,   1.00000,   0.00000,   0.00000,1.00000,1,  100.0,  1304.000,   782.000,   1,1.0000,   0,1.0000,   0,1.0000,   0,1.0000,0, 1.0000
  166,'1 ',   382.108,   132.166,   474.000,  -253.000,1.02000,    0,   100.000,   0.00000,   1.00000,   0.00000,   0.00000,1.00000,1,  100.0,   830.000,   277.000,   1,1.0000,   0,1.0000,   0,1.0000,   0,1.0000,0, 1.0000
  175,'1 ',   288.305,    58.241,   358.000,  -191.000,1.02000,    0,   100.000,   0.00000,   1.00000,   0.00000,   0.00000,1.00000,1,  100.0,   626.000,   209.000,   1,1.0000,   0,1.0000,   0,1.0000,   0,1.0000,0, 1.0000
  176,'1 ',   118.633,    24.177,   153.000,   -81.000,1.02000,    0,   100.000,   0.00000,   1.00000,   0.00000,   0.00000,1.00000,1,  100.0,   267.000,    86.000,   1,1.0000,   0,1.0000,   0,1.0000,   0,1.0000,0, 1.0000
0 / END OF GENERATOR DATA, BEGIN BRANCH DATA
    1,     2,'1 ', 0.00598, 0.12062,1.98515, 414.51, 414.51, 414.51,  0.00000,  0.00000,  0.00000,  0.00000,1,1, 239.2,   1,1.0000,   0,1.0000,   0,1.0000,   0,1.0000
    2,    39,'1 ', 0.00868, 0.06020,0.52937, 530.03, 530.03, 530.03,  0.00000,  0.00000,  0.00000,  0.00000,1,1,  86.8,   1,1.0000,   0,1.0000,   0,1.0000,   0,1.0000
    2,   139,'1 ', 0.00339, 0.02318,0.20974, 530.03, 530.03, 530.03,  0.00000,  0.00000,  0.00000,  0.00000,1,1,  33.9,   1,1.0000,   0,1.0000,   0,1.0000,   0,1.0000
    2,   181,'1 ', 0.00761, 0.05275,0.46393, 530.03, 530.03, 530.03,  0.00000,  0.00000,  0.00000,  0.00000,1,1,  76.1,   1,1.0000,   0,1.0000,   0,1.0000,   0,1.0000
    2,   201,'1 ', 0.00274, 0.01875,0.16965, 530.03, 530.03, 530.03,  0.00000,  0.00000,  0.00000,  0.00000,1,1,  27.4,   1,1.0000,   0,1.0000,   0,1.0000,   0,1.0000
    3,    18,'1 ', 0.00383, 0.15813,0.09685, 316.20, 316.20, 316.20,  0.00000,  0.00000,  0.00000,  0.00000,1,1,  60.3,   1,1.0000,   0,1.0000,   0,1.0000,   0,1.0000
    4,    75,'1 ', 0.01684, 0.03812,0.00951, 107.32, 107.32, 107.32,  0.00000,  0.00000,  0.00000,  0.00000,1,1,   9.2,   1,1.0000,   0,1.0000,   0,1.0000,   0,1.0000
    5,     8,'1 ', 0.00296, 0.03933,0.08406, 578.83, 578.83, 578.83,  0.00000,  0.00000,  0.00000,  0.00000,1,1,  27.9,   1,1.0000,   0,1.0000,   0,1.0000,   0,1.0000
    5,   184,'1 ', 0.04502, 0.11101,0.17939, 178.87, 178.87, 178.87,  0.00000,  0.00000,  0.00000,  0.00000,1,1,  68.6,   1,1.0000,   0,1.0000,   0,1.0000,   0,1.0000
    5,   207,'1 ', 0.00112, 0.01328,0.03027, 541.39, 541.39, 541.39,  0.00000,  0.00000,  0.00000,  0.00000,1,1,   9.7,   1,1.0000,   0,1.0000,   0,1.0000,   0,1.0000
    6,     7,'1 ', 0.06200, 0.14575,0.03365, 107.32, 107.32, 107.32,  0.00000,  0.00000,  0.00000,  0.00000,1,1,  34.0,   1,1.0000,   0,1.0000,   0,1.0000,   0,1.0000
    6,    70,'1 ', 0.03364, 0.07769,0.01859, 107.32, 107.32, 107.32,  0.00000,  0.00000,  0.00000,  0.00000,1,1,  18.5,   1,1.0000,   0,1.0000,   0,1.0000,   0,1.0000
    8,    54,'1 ', 0.00033, 0.00508,0.01216, 665.28, 665.28, 665.28,  0.00000,  0.00000,  0.00000,  0.00000,1,1,   3.8,   1,1.0000,   0,1.0000,   0,1.0000,   0,1.0000
  187,     9,'1 ', 0.00684, 0.04742,0.41703, 530.03, 530.03, 530.03,  0.00000,  0.00000,  0.00000,  0.00000,1,1,  68.4,   1,1.0000,   0,1.0000,   0,1.0000,   0,1.0000
   10,    11,'1 ', 0.00032, 0.00856,0.00495, 566.01, 566.01, 566.01,  0.00000,  0.00000,  0.00000,  0.00000,1,1,   3.2,   1,1.0000,   0,1.0000,   0,1.0000,   0,1.0000
   10,    70,'1 ', 0.00580, 0.06727,0.02063, 324.83, 324.83, 324.83,  0.00000,  0.00000,  0.00000,  0.00000,1,1,  18.1,   1,1.0000,   0,1.0000,   0,1.0000,   0,1.0000
   11,   173,'1 ', 0.01667, 0.12408,0.03486, 237.35, 237.35, 237.35,  0.00000,  0.00000,  0.00000,  0.00000,1,1,  31.9,   1,1.0000,   0,1.0000,   0,1.0000,   0,1.0000
  188,    13,'1 ', 0.00011, 0.00195,0.02003,1045.73,1045.73,1045.73,  0.00000,  0.00000,  0.00000,  0.00000,1,1,   3.0,   1,1.0000,   0,1.0000,   0,1.0000,   0,1.0000
   13,   190,'1 ', 0.00085, 0.01791,0.26779,1060.07,1060.07,1060.07,  0.00000,  0.00000,  0.00000,  0.00000,1,1,  33.9,   1,1.0000,   0,1.0000,   0,1.0000,   0,1.0000
   14,    15,'1 ', 0.03611, 0.08904,0.14388, 178.87, 178.87, 178.87,  0.00000,  0.00000,  0.00000,  0.00000,1,1,  55.0,   1,1.0000,   0,1.0000,   0,1.0000,   0,1.0000
   14,   177,'1 ', 0.01882, 0.06776,0.11459, 229.46, 229.46, 229.46,  0.00000,  0.00000,  0.00000,  0.00000,1,1,  42.5,   1,1.0000,   0,1.0000,   0,1.0000,   0,1.0000
   15,    61,'1 ', 0.00413, 0.02750,0.05200, 353.36, 353.36, 353.36,  0.00000,  0.00000,  0.00000,  0.00000,1,1,  18.4,   1,1.0000,   0,1.0000,   0,1.0000,   0,1.0000
  184,    15,'1 ', 0.00343, 0.04204,0.08894, 541.39, 541.39, 541.39,  0.00000,  0.00000,  0.00000,  0.00000,1,1,  29.7,   1,1.0000,   0,1.0000,   0,1.0000,   0,1.0000
   16,   149,'1 ', 0.01423, 0.04695,0.01231, 137.68, 137.68, 137.68,  0.00000,  0.00000,  0.00000,  0.00000,1,1,  11.6,   1,1.0000,   0,1.0000,   0,1.0000,   0,1.0000
   17,    18,'1 ', 0.05670, 0.19450,0.04709, 137.68, 137.68, 137.68,  0.00000,  0.00000,  0.00000,  0.00000,1,1,  46.1,   1,1.0000,   0,1.0000,   0,1.0000,   0,1.0000
   17,   145,'1 ', 0.04673, 0.10452,0.02669, 107.32, 107.32, 107.32,  0.00000,  0.00000,  0.00000,  0.00000,1,1,  25.6,   1,1.0000,   0,1.0000,   0,1.0000,   0,1.0000
   19,    96,'1 ', 0.05510, 0.12952,0.02990, 107.32, 107.32, 107.32,  0.00000,  0.00000,  0.00000,  0.00000,1,1,  30.2,   1,1.0000,   0,1.0000,   0,1.0000,   0,1.0000
   19,   105,'1 ', 0.00053, 0.01276,0.00724, 522.03, 522.03, 522.03,  0.00000,  0.00000,  0.00000,  0.00000,1,1,   4.7,   1,1.0000,   0,1.0000,   0,1.0000,   0,1.0000
   19,   110,'1 ', 0.00509, 0.02371,0.00609, 173.53, 173.53, 173.53,  0.00000,  0.00000,  0.00000,  0.00000,1,1,   5.8,   1,1.0000,   0,1.0000,   0,1.0000,   0,1.0000
   19,   118,'1 ', 0.00064, 0.01345,0.00755, 474.70, 474.70, 474.70,  0.00000,  0.00000,  0.00000,  0.00000,1,1,   4.9,   1,1.0000,   0,1.0000,   0,1.0000,   0,1.0000
   19,   175,'1 ', 0.05620, 0.25162,0.07017, 173.53, 173.53, 173.53,  0.00000,  0.00000,  0.00000,  0.00000,1,1,  64.5,   1,1.0000,   0,1.0000,   0,1.0000,   0,1.0000
   21,   129,'1 ', 0.00698, 0.03501,0.01005, 187.39, 187.39, 187.39,  0.00000,  0.00000,  0.00000,  0.00000,1,1,   9.1,   1,1.0000,   0,1.0000,   0,1.0000,   0,1.0000
   21,   130,'1 ', 0.00738, 0.06070,0.01884, 261.01, 261.01, 261.01,  0.00000,  0.00000,  0.00000,  0.00000,1,1,  16.4,   1,1.0000,   0,1.0000,   0,1.0000,   0,1.0000
   22,    23,'1 ', 0.01398, 0.03448,0.05572, 178.87, 178.87, 178.87,  0.00000,  0.00000,  0.00000,  0.00000,1,1,  21.3,   1,1.0000,   0,1.0000,   0,1.0000,   0,1.0000
   23,    24,'1 ', 0.04301, 0.10605,0.17137, 178.87, 178.87, 178.87,  0.00000,  0.00000,  0.00000,  0.00000,1,1,  65.6,   1,1.0000,   0,1.0000,   0,1.0000,   0,1.0000
   23,    90,'1 ', 0.00690, 0.02037,0.03648, 206.75, 206.75, 206.75,  0.00000,  0.00000,  0.00000,  0.00000,1,1,  13.2,   1,1.0000,   0,1.0000,   0,1.0000,   0,1.0000
   23,    91,'1 ', 0.01279, 0.05439,0.09557, 262.53, 262.53, 262.53,  0.00000,  0.00000,  0.00000,  0.00000,1,1,  35.1,   1,1.0000,   0,1.0000,   0,1.0000,   0,1.0000
   24,   177,'1 ', 0.00208, 0.01428,0.02528, 353.36, 353.36, 353.36,  0.00000,  0.00000,  0.00000,  0.00000,1,1,   9.2,   1,1.0000,   0,1.0000,   0,1.0000,   0,1.0000
   25,   133,'1 ', 0.00613, 0.04868,0.09258, 395.58, 395.58, 395.58,  0.00000,  0.00000,  0.00000,  0.00000,1,1,  32.6,   1,1.0000,   0,1.0000,   0,1.0000,   0,1.0000
   25,   168,'1 ', 0.01816, 0.04527,0.07160, 178.87, 178.87, 178.87,  0.00000,  0.00000,  0.00000,  0.00000,1,1,  27.7,   1,1.0000,   0,1.0000,   0,1.0000,   0,1.0000
   26,    42,'1 ', 0.00714, 0.04949,0.43522, 530.03, 530.03, 530.03,  0.00000,  0.00000,  0.00000,  0.00000,1,1,  71.4,   1,1.0000,   0,1.0000,   0,1.0000,   0,1.0000
   26,    43,'1 ', 0.00133, 0.00911,0.08245, 530.03, 530.03, 530.03,  0.00000,  0.00000,  0.00000,  0.00000,1,1,  13.3,   1,1.0000,   0,1.0000,   0,1.0000,   0,1.0000
   26,   202,'1 ', 0.01045, 0.07245,0.63716, 530.03, 530.03, 530.03,  0.00000,  0.00000,  0.00000,  0.00000,1,1, 104.5,   1,1.0000,   0,1.0000,   0,1.0000,   0,1.0000
   27,   160,'1 ', 0.02217, 0.05468,0.08835, 178.87, 178.87, 178.87,  0.00000,  0.00000,  0.00000,  0.00000,1,1,  33.8,   1,1.0000,   0,1.0000,   0,1.0000,   0,1.0000
   28,    77,'1 ', 0.06656, 0.15647,0.03612, 107.32, 107.32, 107.32,  0.00000,  0.00000,  0.00000,  0.00000,1,1,  36.5,   1,1.0000,   0,1.0000,   0,1.0000,   0,1.0000
   28,    88,'1 ', 0.00116, 0.01860,0.00608, 418.29, 418.29, 418.29,  0.00000,  0.00000,  0.00000,  0.00000,1,1,   5.1,   1,1.0000,   0,1.0000,   0,1.0000,   0,1.0000
   29,    84,'1 ', 0.00955, 0.09168,0.02681, 283.00, 283.00, 283.00,  0.00000,  0.00000,  0.00000,  0.00000,1,1,  24.0,   1,1.0000,   0,1.0000,   0,1.0000,   0,1.0000
   39,    43,'1 ', 0.00577, 0.04003,0.35199, 530.03, 530.03, 530.03,  0.00000,  0.00000,  0.00000,  0.00000,1,1,  57.7,   1,1.0000,   0,1.0000,   0,1.0000,   0,1.0000
   40,    43,'1 ', 0.00360, 0.02314,0.23770, 530.03, 530.03, 530.03,  0.00000,  0.00000,  0.00000,  0.00000,1,1,  36.0,   1,1.0000,   0,1.0000,   0,1.0000,   0,1.0000
  202,    41,'1 ', 0.00271, 0.01880,0.16536, 530.03, 530.03, 530.03,  0.00000,  0.00000,  0.00000,  0.00000,1,1,  27.1,   1,1.0000,   0,1.0000,   0,1.0000,   0,1.0000
   42,   167,'1 ', 0.00687, 0.04934,0.40438, 530.03, 530.03, 530.03,  0.00000,  0.00000,  0.00000,  0.00000,1,1,  68.7,   1,1.0000,   0,1.0000,   0,1.0000,   0,1.0000
   44,    55,'1 ', 0.00742, 0.02703,0.04470, 229.46, 229.46, 229.46,  0.00000,  0.00000,  0.00000,  0.00000,1,1,  16.8,   1,1.0000,   0,1.0000,   0,1.0000,   0,1.0000
   45,    52,'1 ', 0.00089, 0.00836,0.07659, 652.53, 652.53, 652.53,  0.00000,  0.00000,  0.00000,  0.00000,1,1,  12.3,   1,1.0000,   0,1.0000,   0,1.0000,   0,1.0000
  206,    45,'1 ', 0.00042, 0.00286,0.02611, 530.03, 530.03, 530.03,  0.00000,  0.00000,  0.00000,  0.00000,1,1,   4.2,   1,1.0000,   0,1.0000,   0,1.0000,   0,1.0000
   45,   212,'1 ', 0.00103, 0.00976,0.08940, 652.53, 652.53, 652.53,  0.00000,  0.00000,  0.00000,  0.00000,1,1,  14.3,   1,1.0000,   0,1.0000,   0,1.0000,   0,1.0000
   46,    47,'1 ', 0.01683, 0.10628,0.02894, 212.01, 212.01, 212.01,  0.00000,  0.00000,  0.00000,  0.00000,1,1,  26.9,   1,1.0000,   0,1.0000,   0,1.0000,   0,1.0000
   47,    63,'1 ', 0.03810, 0.08957,0.02068, 107.32, 107.32, 107.32,  0.00000,  0.00000,  0.00000,  0.00000,1,1,  20.9,   1,1.0000,   0,1.0000,   0,1.0000,   0,1.0000
   48,   150,'1 ', 0.00352, 0.02444,0.21489, 530.03, 530.03, 530.03,  0.00000,  0.00000,  0.00000,  0.00000,1,1,  35.2,   1,1.0000,   0,1.0000,   0,1.0000,   0,1.0000
  182,    48,'1 ', 0.00342, 0.02370,0.20841, 530.03, 530.03, 530.03,  0.00000,  0.00000,  0.00000,  0.00000,1,1,  34.2,   1,1.0000,   0,1.0000,   0,1.0000,   0,1.0000
   49,    65,'1 ', 0.00180, 0.03771,0.02118, 474.70, 474.70, 474.70,  0.00000,  0.00000,  0.00000,  0.00000,1,1,  13.8,   1,1.0000,   0,1.0000,   0,1.0000,   0,1.0000
   50,    65,'1 ', 0.00526, 0.03751,0.01148, 237.35, 237.35, 237.35,  0.00000,  0.00000,  0.00000,  0.00000,1,1,  10.1,   1,1.0000,   0,1.0000,   0,1.0000,   0,1.0000
   51,    68,'1 ', 0.00406, 0.03734,0.01192, 283.00, 283.00, 283.00,  0.00000,  0.00000,  0.00000,  0.00000,1,1,  10.2,   1,1.0000,   0,1.0000,   0,1.0000,   0,1.0000
   51,    72,'1 ', 0.00071, 0.00719,0.00234, 304.04, 304.04, 304.04,  0.00000,  0.00000,  0.00000,  0.00000,1,1,   2.0,   1,1.0000,   0,1.0000,   0,1.0000,   0,1.0000
  183,    52,'1 ', 0.00205, 0.02164,0.20301, 707.51, 707.51, 707.51,  0.00000,  0.00000,  0.00000,  0.00000,1,1,  32.1,   1,1.0000,   0,1.0000,   0,1.0000,   0,1.0000
...